Compound 21_1_01
haSeeSAR  07122114523D 1   1.00000     0.00000     0
SeeSAR 11.0.2 hazemaj
 51 53  0  0  0  0            999 V2000
   18.6324  -17.5000    8.1030 Cl  0  0  0  0  0  0  0  0  0  0  0  0
   18.5085  -15.9931    7.1637 C   0  0  0  0  0  0  0  0  0  0  0  0
   17.3226  -15.6942    6.5012 C   0  0  0  0  0  0  0  0  0  0  0  0
   19.5997  -15.1327    7.1036 C   0  0  0  0  0  0  0  0  0  0  0  0
   17.2399  -14.5130    5.7711 C   0  0  0  0  0  0  0  0  0  0  0  0
   19.4952  -13.9572    6.3675 C   0  0  0  0  0  0  0  0  0  0  0  0
   18.3189  -13.6382    5.6972 C   0  0  0  0  0  0  0  0  0  0  0  0
   15.9481  -14.1782    5.0430 C   0  0  0  0  0  0  0  0  0  0  0  0
   16.0726  -12.8594    4.4056 N   0  0  0  0  0  0  0  0  0  0  0  0
   16.3935  -12.7665    3.0459 C   0  0  0  0  0  0  0  0  0  0  0  0
   15.8814  -11.7602    5.1167 C   0  0  0  0  0  0  0  0  0  0  0  0
   17.7272  -12.7900    2.6509 C   0  0  0  0  0  0  0  0  0  0  0  0
   15.3708  -12.6506    2.1100 C   0  0  0  0  0  0  0  0  0  0  0  0
   16.1808  -10.6629    4.6461 O   0  0  0  0  0  0  0  0  0  0  0  0
   15.2919  -11.8526    6.5147 C   0  0  0  0  0  0  0  0  0  0  0  0
   18.0439  -12.6960    1.2994 C   0  0  0  0  0  0  0  0  0  0  0  0
   15.6910  -12.5572    0.7597 C   0  0  0  0  0  0  0  0  0  0  0  0
   13.7777  -11.7461    6.4342 C   0  0  0  0  0  0  0  0  0  0  0  0
   17.0233  -12.5799    0.3611 C   0  0  0  0  0  0  0  0  0  0  0  0
   13.0094  -10.5636    6.5216 C   0  0  0  0  0  0  0  0  0  0  0  0
   12.9037  -12.7810    6.2648 C   0  0  0  0  0  0  0  0  0  0  0  0
   17.3720  -12.4778   -1.1155 C   0  0  0  0  0  0  0  0  0  0  0  0
   11.7533  -10.9316    6.4001 N   0  0  0  0  0  0  0  0  0  0  0  0
   11.6476  -12.2433    6.2533 N   0  0  0  0  0  0  0  0  0  0  0  0
   16.8596  -13.7105   -1.8424 C   0  0  0  0  0  0  0  0  0  0  0  0
   16.7228  -11.2360   -1.7044 C   0  0  0  0  0  0  0  0  0  0  0  0
   18.8807  -12.3855   -1.2761 C   0  0  0  0  0  0  0  0  0  0  0  0
   16.5426  -16.3180    6.5489 H   0  0  0  0  0  0  0  0  0  0  0  0
   20.4483  -15.3564    7.5831 H   0  0  0  0  0  0  0  0  0  0  0  0
   20.2755  -13.3337    6.3196 H   0  0  0  0  0  0  0  0  0  0  0  0
   18.2499  -12.7916    5.1694 H   0  0  0  0  0  0  0  0  0  0  0  0
   15.1916  -14.1625    5.6966 H   0  0  0  0  0  0  0  0  0  0  0  0
   15.7704  -14.8709    4.3440 H   0  0  0  0  0  0  0  0  0  0  0  0
   18.4532  -12.8739    3.3336 H   0  0  0  0  0  0  0  0  0  0  0  0
   14.4155  -12.6347    2.4049 H   0  0  0  0  0  0  0  0  0  0  0  0
   15.6491  -11.1066    7.0770 H   0  0  0  0  0  0  0  0  0  0  0  0
   15.5431  -12.7291    6.9252 H   0  0  0  0  0  0  0  0  0  0  0  0
   18.9993  -12.7117    1.0042 H   0  0  0  0  0  0  0  0  0  0  0  0
   14.9650  -12.4739    0.0771 H   0  0  0  0  0  0  0  0  0  0  0  0
   13.3524   -9.6330    6.6502 H   0  0  0  0  0  0  0  0  0  0  0  0
   13.1382  -13.7483    6.1676 H   0  0  0  0  0  0  0  0  0  0  0  0
   17.0886  -13.6442   -2.8135 H   0  0  0  0  0  0  0  0  0  0  0  0
   17.2861  -14.5276   -1.4544 H   0  0  0  0  0  0  0  0  0  0  0  0
   15.8669  -13.7709   -1.7374 H   0  0  0  0  0  0  0  0  0  0  0  0
   16.9520  -11.1687   -2.6754 H   0  0  0  0  0  0  0  0  0  0  0  0
   15.7302  -11.2972   -1.5996 H   0  0  0  0  0  0  0  0  0  0  0  0
   17.0592  -10.4251   -1.2254 H   0  0  0  0  0  0  0  0  0  0  0  0
   19.1090  -12.3185   -2.2474 H   0  0  0  0  0  0  0  0  0  0  0  0
   19.2178  -11.5747   -0.7978 H   0  0  0  0  0  0  0  0  0  0  0  0
   19.3078  -13.2027   -0.8889 H   0  0  0  0  0  0  0  0  0  0  0  0
   10.9769  -10.3016    6.4164 H   0  0  0  0  0  0  0  0  0  0  0  0
  1  2  1  0  0  0  0
  2  3  2  0  0  0  0
  2  4  1  0  0  0  0
  3  5  1  0  0  0  0
  4  6  2  0  0  0  0
  5  7  2  0  0  0  0
  5  8  1  0  0  0  0
  8  9  1  0  0  0  0
  9 10  1  0  0  0  0
  9 11  1  0  0  0  0
 10 12  2  0  0  0  0
 10 13  1  0  0  0  0
 11 14  2  0  0  0  0
 11 15  1  0  0  0  0
 12 16  1  0  0  0  0
 13 17  2  0  0  0  0
 15 18  1  0  0  0  0
 16 19  2  0  0  0  0
 18 20  2  0  0  0  0
 18 21  1  0  0  0  0
 19 22  1  0  0  0  0
 20 23  1  0  0  0  0
 21 24  2  0  0  0  0
 22 25  1  0  0  0  0
 22 26  1  0  0  0  0
 22 27  1  0  0  0  0
  6  7  1  0  0  0  0
 17 19  1  0  0  0  0
 23 24  1  0  0  0  0
  3 28  1  0  0  0  0
  4 29  1  0  0  0  0
  6 30  1  0  0  0  0
  7 31  1  0  0  0  0
  8 32  1  0  0  0  0
  8 33  1  0  0  0  0
 12 34  1  0  0  0  0
 13 35  1  0  0  0  0
 15 36  1  0  0  0  0
 15 37  1  0  0  0  0
 16 38  1  0  0  0  0
 17 39  1  0  0  0  0
 20 40  1  0  0  0  0
 21 41  1  0  0  0  0
 23 51  1  0  0  0  0
 25 42  1  0  0  0  0
 25 43  1  0  0  0  0
 25 44  1  0  0  0  0
 26 45  1  0  0  0  0
 26 46  1  0  0  0  0
 26 47  1  0  0  0  0
 27 48  1  0  0  0  0
 27 49  1  0  0  0  0
 27 50  1  0  0  0  0
M  END
> <BIOSOLVEIT.HYDE_ESTIMATED_AFFINITY_LOWER_BOUNDARY [nM]>
19897.682804

> <BIOSOLVEIT.HYDE_ESTIMATED_AFFINITY_UPPER_BOUNDARY [nM]>
1976952.430956

> <BIOSOLVEIT.HYDE_LIGAND_EFFICIENCY range: ++, +, 0, -, -->
--

> <BIOSOLVEIT.HYDE_LIGAND_LIPOPHILIC_EFFICIENCY range: ++, +, 0, -, -->
--

> <BIOSOLVEIT.INTER_CLASH range: red, yellow, green>
green

> <BIOSOLVEIT.INTRA_CLASH range: red, yellow, green>
green

> <BIOSOLVEIT.LOGP>
5.1365

> <BIOSOLVEIT.MOLECULAR WEIGHT>
381.905

> <BIOSOLVEIT.MOLECULE_CHECKSUM>
LTIxLjEzNDU7MC43ODI3NTg=

> <BIOSOLVEIT.TORSION_QUALITY range: red, yellow, green, not rotatable>
green

> <BIOSOLVEIT.TPSA>
48.99

> <BIOSOLVEIT.SEESAR_FAVORITE>
favorite

> <smc_score>
0.563

> <QED_score>
0.665

> <distance>
0.562

> <SimilarityPheSA_1>
0.717

> <Smiles>
CC(C)(C)c1ccc(N(Cc2cccc(Cl)c2)C(=O)Cc2cn[nH]c2)cc1

> <Similarity_SkelSpheres>
0.732

> <Cluster No>
12.0

> <QueryID>
ALP-POS-6d04362c-2

> <SimilarityPheSA>
0.7168

> <Postera series>
3-aminopyridine-like

> <PDB_code>
Mpro-x12423

> <Approach>
DGM_focussed_RL

> <ID>
20210618_20

> <SimilarityPheSA_2>
0.685

> <OPTIBRIUM.logD>
4.86389

> <OPTIBRIUM.BBB category>
+

> <OPTIBRIUM.logP>
4.86389

> <OPTIBRIUM.P-gp category>
yes

> <OPTIBRIUM.logS>
0.613093

> <OPTIBRIUM.HIA category>
+

> <OPTIBRIUM.PPB90 category>
high

> <OPTIBRIUM.2D6 affinity category>
medium

> <OPTIBRIUM.hERG pIC50>
4.99929

> <OPTIBRIUM.2C9 pKi>
5.74258

> <OPTIBRIUM.BBB log([brain]:[blood])>
0.0303668

> <OPTIBRIUM.logS @ pH7.4>
0.613093

$$$$
